@<TRIPOS>MOLECULE
SIMPLE
   4    3     1     1     1
SMALL
USER_CHARGES
@<TRIPOS>ATOM
    1 C1         1.0       -0.5      0.0    C.3        1 ****    0.0354
    2 C2         0.0       0.0      0.0    C.3        1 ****   -0.3848
    3 C3         0.0       1.0      0.0    C.3        1 ****    0.0451
    4 C4         1.0       1.5      0.0    C.3        1 ****   -0.0367
@<TRIPOS>BOND
     1    1    2 1  
     2    2    3 1  
     3    3    4 1
@<TRIPOS>SUBSTRUCTURE
1   ****   1

$$$$